30
Coordinates from ORCA-job PBEh-3c
  O   1.17064674605645      0.85487967872285     -2.26148567396930
  O   -1.22505252387699      1.69926924598657     -2.16452434592842
  O   -1.98869423924318      1.60140418806517      0.17562833185156
  O   -0.08296919801591      1.98225601663019      1.73375208156092
  O   2.12751097194867      1.46267992500606      0.29636169298255
  H   -0.27593307969907      1.34066178313976     -2.25256558091967
  H   -1.68071912841406      1.66982150774510     -0.83147660163443
  H   -1.19288857211941      1.84628852081600      0.81788576433661
  H   0.76163266674563      1.96688320612115      1.22291299714445
  H   1.60420485328020      1.20378710778535     -1.46058163644290
  H   1.18681766187717     -0.11847380761711     -2.13137708589425
  H   -1.25031544148545      2.55363883364121     -2.59925630809995
  H   -2.21746540897964      0.63975284732581      0.38807599370926
  H   -0.07674892416983      1.12902729233625      2.21129411040664
  H   2.98372279231704      1.84867293265233      0.48776014621130
  H   2.15027029454098      0.46327094787828      0.58168113419290
  O   1.27328781768860     -1.75120496274343     -1.43651505667497
  O   1.90709795370900     -0.93753356517056      0.91408668695914
  O   -0.09294984243014     -0.73937712145621      2.31575489173032
  O   -2.26883700427507     -0.85756328844371      0.88560958351384
  O   -1.06570563121715     -3.35680441756106     -0.59313562668922
  H   1.55359206310868     -1.52294874795957     -0.49364511915055
  H   0.78702024527744     -0.90655161217048      1.73224167388963
  H   -1.45169422556736     -0.94389545283014      1.45659448377759
  H   -1.64715520203533     -2.64573782506519     -0.31617352040762
  H   -0.31036873096240     -2.89730636219236     -0.97926766899604
  H   1.95978838031067     -2.30992878089556     -1.80421239561780
  H   2.64282952129102     -1.38495591560590      1.33509490233540
  H   -0.01566354440774     -1.25627053100759      3.11947883640242
  H   -3.02085727125284     -1.09797764313323      1.43051930942060
