6
Coordinates from ORCA-job PBEh-3c
  O   1.42593356006526     -0.00021244585727      0.15773564301157
  O   -1.49061628800722      0.00016399875556     -0.12881105983372
  H   1.69218311622368     -0.76206571009047     -0.36031086158774
  H   1.69191749813135      0.76244283799183     -0.35926789306492
  H   -0.54069394037612      0.00003195218576      0.03909758451389
  H   -1.89270594603695     -0.00057263298539      0.73928858696091
