9
Coordinates from ORCA-job PBEh-3c
  O   -1.53860542464494     -0.57000896108740     -0.11047682924153
  O   1.26320557262408     -1.04744138146503     -0.11016355976068
  H   -2.03007397132223     -0.60809023078163      0.71066148790832
  H   -1.19096773367691      0.33557618237224     -0.16350980164338
  H   0.30519979029773     -1.19950787250921     -0.16318556633174
  H   1.54221428264023     -1.45455849301377      0.71061042175699
  H   0.88617611866364      0.86392028817515     -0.16273321244787
  O   0.27534156249217      1.61746938831539     -0.11024269975391
  H   0.48750680292623      2.06262507999424      0.71078375951382
