9
Coordinates from ORCA-job PBEh-3c
  O   -0.23979518858087      1.58894509954710      0.16315477468089
  O   -1.28385911843580     -1.00392292273362     -0.13304104420010
  H   0.57081249177192      1.05285825630263      0.11074686300435
  H   -0.23687632089282      2.12717979230123     -0.62991910008203
  H   -1.21273169130060     -0.03629589718128     -0.05793520500471
  H   -1.70204507067873     -1.28925903542935      0.68034153448135
  O   1.52254367882292     -0.57848097941965     -0.13646528101731
  H   0.66627823059759     -1.03176510163878     -0.21488952185934
  H   1.92735298869639     -0.93078821174827      0.65726797999692
