15
Coordinates from ORCA-job PBEh-3c
  O   0.22427823719349      0.53781865343494      1.63496288798276
  O   2.18734850738647     -0.14263902715595      0.01641763600249
  O   0.19262659927854     -0.62124341188249     -1.68521643176118
  O   -1.29891143455687      1.54264966214793     -0.46991065581060
  O   -1.38683639271401     -1.64679099551507      0.47740509094968
  H   1.05259326817606      0.31865927131572      1.13538841393269
  H   1.56277083908094     -0.38326639380394     -0.71463380268008
  H   -0.30823749902542      0.20137859773137     -1.57034664859759
  H   -1.24651475448686      2.48332060724863     -0.63992857498691
  H   -0.88196557114866     -1.06858104016751      1.06664978260233
  H   0.46695867165332      0.66820738306714      2.55232473354227
  H   2.77165507041731      0.52538619043215     -0.34487239062343
  H   -0.31201803803728     -1.24829918636297     -1.14037559027984
  H   -0.83324146673880      1.38992268931460      0.36883609780840
  H   -2.18547003647824     -1.14968199980456      0.28759545191900
