15
Coordinates from ORCA-job PBEh-3c
  O   2.25678072148002     -0.01315274097993     -0.03759214017182
  O   0.71043964458930      2.14173622143660      0.13546772641426
  H   2.81127014982519     -0.13070328975695      0.73526016308249
  H   1.68665046245444     -0.82039194134506     -0.07519353852641
  H   1.29818098620152      1.34777488899880      0.09595090768537
  H   1.01844623709850      2.72353533311957     -0.56030227440371
  O   0.68055244536159     -2.14987263742012     -0.04399734997171
  H   -0.26224510931949     -1.85607794969384      0.00908939478011
  O   -1.83859032294563     -1.31135935539414      0.02012407649918
  H   -1.85765854705391     -0.32306105182679      0.01024490378002
  O   -1.83782951147843      1.34604077288736      0.05415525192182
  H   -0.91133982930473      1.68311325757383      0.11080203189326
  H   0.73767339884427     -2.68632747219497     -0.83592646244584
  H   -2.30989588980703     -1.56753063911979      0.81428002889737
  H   -2.21556583594563      1.74409160371540     -0.73099171943440
