24
Coordinates from ORCA-job PBEh-3c
  O   -2.23443533796338      0.31404262315312      0.13386459583608
  O   -1.75635091314767     -2.20125545497039     -0.02289057097052
  O   0.75975044567883     -2.67972947300176     -0.26358516302825
  H   -3.18979967825020      0.39646650881253      0.16877360571329
  H   -2.04032956409083     -0.67545413224989      0.07964655435012
  H   -1.97609717355843     -2.68082598588727      0.77798782438082
  H   -0.78024908191036     -2.38484053939977     -0.17523312577527
  H   1.05442230680295     -3.15126619064367     -1.04370660485381
  O   2.22878135395060     -0.57078048848188     -0.15167385162159
  O   1.72837133568004      0.90464701252245      2.12339950819389
  O   1.55570816735931      1.19057245496834     -2.15611476222680
  H   1.34184207498196     -1.86061685197917     -0.19842181720167
  H   2.04275829553639      0.03795491113796     -0.89381566834414
  O   -1.13527019921687      1.63495186477599     -2.01945303819276
  O   -0.94810954252203      1.40794289364688      2.31774984678884
  H   2.09706539728303     -0.04770573470822      0.66337405073254
  H   -1.41807508245415      1.00387138432835      1.56251009032034
  H   0.76627054000969      1.06915474062909      2.20356033571444
  H   -1.52386955424947      1.17395128627187     -1.25033894459666
  H   0.59385914880275      1.36522511609265     -2.10065935365806
  H   -1.05636758738934      2.35412201524550      2.20853659777552
  H   1.97470749821213      0.42706421827348      2.91632589400735
  H   -1.52807863045952      1.22317065582209     -2.79063999610999
  H   1.97900278091458      2.03984416564173     -2.02498000723370
