24
Coordinates from ORCA-job PBEh-3c
  O   2.00069517472767      0.08464487380790      1.31531014768059
  O   1.99179936466588      0.08241758099374     -1.31231168036451
  O   -0.08543479244072      2.00288879533388     -1.31468136461553
  O   -0.08238393533579      1.99457053749164      1.31344211902358
  O   0.08338605614805     -1.99462542178880      1.31272286898635
  O   0.08435520487892     -2.00143134715418     -1.31484226824063
  O   -1.99239918278696     -0.08331666819341     -1.31241304853446
  O   -2.00022966606147     -0.08531760968871      1.31511937936240
  H   2.88346380137363      0.12319854538403      1.68651949308497
  H   2.10149681168806      0.08815375426929      0.32310506969644
  H   0.82662861589688     -1.39683241084066      1.50284193452854
  H   -0.70795809417488     -1.46139687704455      1.50146153029807
  H   -2.10068412973302     -0.08890632458329      0.32283617475858
  H   -1.39543624586214     -0.82716209200806     -1.50285757534227
  H   -1.45946766335813      0.70770325081673     -1.50304798690729
  H   0.08833829875889     -2.10287109033393     -0.32259215667619
  H   1.45890785747090     -0.70897599081619     -1.50165952381248
  H   1.39509734899811      0.82624173966515     -1.50324716902888
  H   -0.12280709036152      2.88527400181885     -1.68687930879705
  H   -0.08867937431412      2.10447834235950     -0.32261783542808
  H   0.70844677455308      1.46076330199094      1.50246943126555
  H   -0.82652828427161      1.39759835230159      1.50228449243217
  H   0.12263850159348     -2.88389717265750     -1.68679720861363
  H   -2.88322835205322     -0.12318307112396      1.68585748524381
