12
Coordinates from ORCA-job pbeh-3c
  Cl  0.11560461359619      0.48695930666601     -0.29691820997295
  Cl  -0.40068110184493     -0.34422351819698      3.24505503662158
  Cl  3.09188979616486      0.51999423525331      3.99151471413167
  Cl  4.12703826244477     -2.93644758937634      3.29691843583166
  Cl  4.64332177078102     -2.10526773144625     -0.24505520527314
  Cl  1.15074996896091     -2.96948470030859     -0.99151432594617
  H   3.44992078373866     -2.44590047501333     -0.59064072125284
  H   0.72521490045426     -1.76558751901963     -0.82025802379986
  H   -0.14159835503444      0.25486750494453      0.94394192532048
  H   0.79271975149711     -0.00359061899090      3.59064096769394
  H   3.51742556027164     -0.68390265273407      3.82025747104884
  H   4.38424004896995     -2.70435624177777      2.05605793559680
