12
Coordinates from ORCA-job pbeh-3c
  Cl  -1.17764216211493     -0.00050429137313      0.27755801044272
  Cl  2.40815682679094     -0.00048751187543      1.30328020739794
  Cl  1.92719069824821     -0.00091943541231      4.99983752716890
  Cl  -0.51359745952072      0.00067249637733     -3.44020225288018
  H   -0.90179886876202     -0.00014272257911     -0.97680579957701
  H   1.15405663093478     -0.00052455822932      1.01954477396674
  H   2.12720935708962     -0.00076384776273      3.72952439223007
  H   -1.73473675625053      0.00142877076377     -3.81590671927213
  Cl  5.58345443998405     -0.00056072452324      5.77884853915045
  H   4.31298684089327     -0.00076710271443      5.58550482387293
  Cl  5.06285149924649      0.00165849289382      9.55146750132239
  H   5.35573795346083      0.00091043443478      8.30395999617718
