12
Coordinates from ORCA-job pbeh-3c
  Cl  2.66307709174340     -0.00000287944768     -0.87978860992740
  Cl  3.48857006872294      0.00000513263192      2.68353295239917
  Cl  -0.19340048012058      0.00000453931426      3.44396465338361
  Cl  -1.01910229898741      0.00000500083577     -0.11925274139856
  Cl  6.45053789560283     -0.00000265971258     -1.90863366807869
  H   0.20254345621547      0.00000119965152     -0.51759199755106
  H   -0.56574961030784      0.00000380926059      2.20844456601065
  H   2.26691589676982      0.00000434513905      3.08186320441326
  H   3.03558438651831     -0.00000100018627      0.35568291589548
  H   5.17551069764223     -0.00000544937758     -1.82034751785494
  H   -2.70577205461329     -0.00000377001665      4.38481996846609
  Cl  -3.98078204918588     -0.00000836809234      4.47333507424239
