16
Coordinates from ORCA-job pbeh-3c
  Cl  6.21652578644709     -0.15127832282424      0.35371606743282
  H   5.21504643850592     -0.51017407769426     -0.37078836199627
  Cl  3.19348721063730     -1.45067389613157     -1.30476342731814
  H   2.56834525932419     -0.35691005875668     -1.56794150335607
  Cl  1.27261454730118      1.65734109814432     -1.89835612832944
  H   0.37597128851818      1.19293947347076     -2.69875021839165
  Cl  -1.53834027187326      0.48199022269369     -3.94439214593096
  H   -2.29287420452594      0.77174314124394     -2.94247326055263
  Cl  -3.09781086851944      1.21353718130308     -0.70760961084756
  H   -2.20632756496700      0.38895154079599     -0.28228754469720
  Cl  -0.38139100513163     -1.20328929361258     -0.15551684415052
  H   0.47459651076873     -0.49481681650272      0.49429384503254
  Cl  2.21190643706051      0.84974992415739      1.49127469640165
  H   2.83460343275866     -0.06332572666164      2.15349505992501
  Cl  4.33896601038586     -1.65399079622207      3.11040029225152
  H   5.21930699330965     -1.23305759340342      2.27075208452692
