8
Coordinates from ORCA-job pbeh-3c
  Cl  -0.53977819915991     -0.00000003159510     -0.65709259468901
  Cl  -0.65709340870625      0.00000003142831      3.02977942982865
  Cl  3.14709284971053      0.00000003229116     -0.53977951326871
  Cl  3.02977872886832     -0.00000003245472      3.14709257446652
  H   -0.71449068735166      0.00000002086831      1.74316163598462
  H   1.74316094753847     -0.00000001966769      3.20449032105751
  H   3.20449014854469      0.00000002041349      0.74683828519487
  H   0.74683962055583     -0.00000002128377     -0.71449013857446
