8
Coordinates from ORCA-job pbeh-3c
  Cl  -0.73082605445944      0.00013687631708      0.96229206020064
  Cl  2.94030915242640      0.00008963774443      1.74944083495806
  Cl  2.46215032028992     -0.00014114766751      5.53578502883999
  H   -0.49827227306216      0.00006495876094     -0.30013190318736
  H   1.66617307060015      0.00011179087073      1.58809122681917
  H   2.76721928003265     -0.00006285669099      4.29161102080734
  Cl  -0.21334709842342     -0.00007094182388     -2.79432351755012
  H   -1.45009939740412     -0.00012831751080     -3.11484675088772
